/*--------------------------------*- C++ -*----------------------------------*\
| =========                 |                                                 |
| \\      /  F ield         | OpenFOAM: The Open Source CFD Toolbox           |
|  \\    /   O peration     | Version:  2306                                  |
|   \\  /    A nd           | Website:  www.openfoam.com                      |
|    \\/     M anipulation  |                                                 |
\*---------------------------------------------------------------------------*/
FoamFile
{
    version     2.0;
    format      ascii;
    class       volScalarField;
    object      T;
}
// * * * * * * * * * * * * * * * * * * * * * * * * * * * * * * * * * * * * * //

dimensions      [0 0 0 1 0 0 0]; // Размерность поля 'T'


// Нулевые начальные значения будут перезаписаны утилитой setExprFields
internalField   uniform 	0.0;


// Граничные условя (первого рода, равномерные и нулевые)
boundaryField
{
    boundaryRegion // Имя граничной области (см. файл blockMeshDict)
    {
        type            fixedValue;
        value			uniform 0.0;
    }
}

// ************************************************************************* //
