FoamFile
{
    version     2.0;
    format      ascii;
    class       dictionary;
    object      blockMeshDict;
}

// Длины сторон параллелипипеда
Lx 1.0;
Ly 1.0;
Lz 1.0;

scale   1.0; // Масштаб

// Набор вершин параллелипипеда 
vertices
(
    (0    0   0)
    ($Lx  0   0)
    ($Lx $Ly  0)
    (0   $Ly  0)
    (0    0  $Lz)
    ($Lx  0  $Lz)
    ($Lx $Ly $Lz)
    (0   $Ly $Lz)
);

// (10 10 10) - Число разбиений по осям Ox, Oy, Oz соответственно
blocks
(
    hex (0 1 2 3 4 5 6 7) (10 10 10) simpleGrading (1 1 1)
);

// По умолчанию ребрами будут отрезки
edges
(
);

// "Разметка" граничной области (именование граней параллелипипеда)
boundary
(
    boundaryRegion
    {
        type patch; // Стандартный тип граничной области
        // Список входящих граней
        faces
		 ( 
			(0 3 7 4) // Грань x = 0
			(2 1 5 6) // Грань x = Lx
	        (0 1 2 3) // Грань z = 0
			(4 7 6 5) // Грань z = Lz
			(1 0 4 5) // Грань y = 0
            (3 2 6 7) // Грань z = Ly
		 );
    }
);


// ************************************************************************* //
