/*--------------------------------*- C++ -*----------------------------------*\
| =========                 |                                                 |
| \\      /  F ield         | OpenFOAM: The Open Source CFD Toolbox           |
|  \\    /   O peration     | Version:  v2112                                 |
|   \\  /    A nd           | Website:  www.openfoam.com                      |
|    \\/     M anipulation  |                                                 |
\*---------------------------------------------------------------------------*/
FoamFile
{
    version     2.0;
    format      ascii;
    class       dictionary;
    object      blockMeshDict;
}
// * * * * * * * * * * * * * * * * * * * * * * * * * * * * * * * * * * * * * //
#include "snappyHexMeshDict"
A #calc "1.5*$R0"; //

scale   1.0;

vertices
(
    (-$A -$A -$A)
    ( $A -$A -$A)
    ( $A  $A -$A)
    (-$A  $A -$A)
    (-$A -$A  $A)
    ( $A -$A  $A)
    ( $A  $A  $A)
    (-$A  $A  $A)
);

blocks
(
    hex (0 1 2 3 4 5 6 7) (50 50 50) simpleGrading (1 1 1)
);

edges
(
);

boundary
(
);


// ************************************************************************* //
