/*--------------------------------*- C++ -*----------------------------------*\
| =========                 |                                                 |
| \\      /  F ield         | OpenFOAM: The Open Source CFD Toolbox           |
|  \\    /   O peration     | Version:  2.0.0                                 |
|   \\  /    A nd           | Web:      www.OpenFOAM.com                      |
|    \\/     M anipulation  |                                                 |
\*---------------------------------------------------------------------------*/
FoamFile
{
    version     2.0;
    format      ascii;
    class       dictionary;
    object      snappyHexMeshDict;
}
// * * * * * * * * * * * * * * * * * * * * * * * * * * * * * * * * * * * * * //

//значение радиуса шара R0 используется в словарях
// - blockMeshDict - через макро подстановку
// - 0/T - руками нужно обновлять. 
// -setExprFieldsDict - руками нужно обновлять. 
R0 3.0; 

castellatedMesh true;
snap            true;
addLayers       true;

geometry
{
    innerSphere
    {
        type searchableSphere;
        centre (0.0 0.0 0.0);
        radius $R0;
    }
};

castellatedMeshControls
{
    maxLocalCells 1000000;
    maxGlobalCells 2000000;
    minRefinementCells 0;
    maxLoadUnbalance 0.10;
    nCellsBetweenLevels 3;
	
    features
    (
    );
    
    refinementSurfaces 
    {  
        innerSphere
        {
            level (1 2);
            patchInfo 
            {
                type patch; //Тип граничной области
            }
        }      
    }

    resolveFeatureAngle 60;
	
    refinementRegions
    {
    }
	
    locationInMesh (0.134 0.5461 0.175);
    allowFreeStandingZoneFaces true;
}


snapControls
{
    nSmoothPatch 3;
    tolerance 1.0;
    nSolveIter 30;
    nRelaxIter 5;
}

addLayersControls
{
    relativeSizes true;
	
    layers
    {
        innerSphere
        {
            nSurfaceLayers 3;
        }
    }

    expansionRatio 1.5;

    finalLayerThickness 0.5;
    //finalLayerRatio 0.01;
    minThickness 0.1;
    nGrow -1; // 0;
    featureAngle 30;
    nRelaxIter 5;
    nSmoothSurfaceNormals 1;
    nSmoothNormals 3;
    nSmoothThickness 10;
    maxFaceThicknessRatio 1000; //0.5;
    maxThicknessToMedialRatio 0.3;
    minMedianAxisAngle 90;
    nBufferCellsNoExtrude 0;
    nLayerIter 50; //100;
    nRelaxedIter 0; //20;
}

meshQualityControls
{
    maxNonOrtho 75;
    maxBoundarySkewness 20;
	maxInternalSkewness 4;
    maxConcave 80;
    minVol 1e-200;
    minTetQuality 1e-9;
    minArea -1;
    minTwist 0.05;
    minDeterminant 1e-8; //0.001;
	
    minFaceWeight 0.05;
    minVolRatio 0.01;
    minTriangleTwist -1;

    nSmoothScale 4;
    errorReduction 0.75;

    relaxed
    {
        maxNonOrtho 75;
	minTetQuality -1e30;
        minTwist    -1;
    }
}

debug 0;
mergeTolerance 1e-6;
//#inputMode merge
