FoamFile
{
    version     2.0;
    format      ascii;
    class       dictionary;
    object      fvSolution;
}

solvers
{
    T
    {
        solver          PCG; // Метод сопряженных градиентов
        preconditioner  DIC; // Предобуславливатель

        // Критерий сходимости решения СЛАУ (абсолютная ошибка)
        tolerance       1e-15;

        // Критерий сходимости решения СЛАУ (относительная ошибка)
        relTol          1e-4;
    }
}

// ************************************************************************* //
